/*--------------------------------*- C++ -*----------------------------------*\
| =========                 |                                                 |
| \\      /  F ield         | OpenFOAM: The Open Source CFD Toolbox           |
|  \\    /   O peration     | Version:  v2112                                 |
|   \\  /    A nd           | Website:  www.openfoam.com                      |
|    \\/     M anipulation  |                                                 |
\*---------------------------------------------------------------------------*/
FoamFile
{
    version     2.0;
    format      ascii;
    class       dictionary;
    object      blockMeshDict;
}
// * * * * * * * * * * * * * * * * * * * * * * * * * * * * * * * * * * * * * //

scale  0.0254;

// * * * * * * * * * * * * * * * * * * * * * * * * * * * * * * * * * * * //

vertices
(
  // Empty Chamber
  (0 0 0)
  (2.39963446837534	0.0418857754494801	0)
  (2.39963446837534	0.0418857754494801	6.0)
  (0 0 6.0)
  (2.39963446837534	-0.0418857754494801	0)
  (2.39963446837534	-0.0418857754494801	6.0)

  // Propellant Chamber
  (0 0 6.0)
  (2.39963446837534	0.0418857754494801	6.0)
  (2.39963446837534	0.0418857754494801	32.815)
  (0 0 32.815)
  (2.39963446837534	-0.0418857754494801	6.0)
  (2.39963446837534	-0.0418857754494801	32.815)

  // Nozzle
  (0 0 32.815)
  (0.51992080148132	0.0090752513473874	32.815)
  (0.62690450486306 0.0109426588361767	33.48)
  (0 0 33.48)
  (0.51992080148132	-0.0090752513473874	32.815)
  (0.62690450486306 -0.0109426588361767	33.48)
);

blocks
(
  hex (0 4 1 0 3 5 2 3) (31 1 40) simpleGrading
  (
    ((0.06501 0.0875 3)(0.08668 0.075 1)(0.06501 0.0875 0.33)(0.2 0.2 3)(0.3833 0.25 1)(0.2 0.3 0.2))
    1
    ((0.2 0.3 4)(0.8 0.7 1))
  )
  hex (6 10 7 6 9 11 8 9) (31 1 200) simpleGrading
  (
    ((0.06501 0.0875 3)(0.08668 0.075 1)(0.06501 0.0875 0.33)(0.2 0.2 3)(0.3833 0.25 1)(0.2 0.3 0.2))
    1
    ((0.9 0.84 1)(0.1 0.16 0.2))
  )
  hex (12 16 13 12 15 17 14 15) (8 1 15) simpleGrading
  (
    ((0.3 0.35 3)(0.4 0.3 1)(0.3 0.35 0.33))
    1 3
    // ((0.4 0.6 3)(0.6 0.4 1))
  )
);

edges
();

boundary
(
     front
     {
           type wedge;
           faces
           (
               (0 3 2 1)
               (6 9 8 7)
               (12 15 14 13)
           );
      }
     back
     {
           type wedge;
           faces
           (
               (0 4 5 3)
               (6 10 11 9)
               (12 16 17 15)
           );
      }
     Wall
     {
           type wall;
           faces
           (
               (1 2 5 4)
               (7 8 11 10)
               (13 14 17 16)
               (0 1 4 0)
           );
     }
     outlet
     {
           type patch;
           faces
           (
              // (9 11 8 9)
              (15 17 14 15)
           );
      }
      block1I2
      {
            type patch;
            faces
            (
 	            (3 5 2 3)
            );
      }
      block2I1
      {
            type patch;
            faces
            (
              (6 7 10 6)
            );
      }
      WallChamber
      {
            type patch;
            faces
            (
              (9 11 8 9)
            );
      }
      block3I1
      {
            type patch;
            faces
            (
              (12 13 16 12)
            );
      }
     axis
     {
           type empty;
           faces
           (
               (0 3 3 0)
               (6 9 9 6)
               (12 15 15 12)
           );
      }
);

mergePatchPairs
(
  (block1I2 block2I1)
  (WallChamber block3I1)
);
// ************************************************************************* //
