/*--------------------------------*- C++ -*----------------------------------*\
| =========                 |                                                 |
| \\      /  F ield         | OpenFOAM: The Open Source CFD Toolbox           |
|  \\    /   O peration     | Version:  v2112                                 |
|   \\  /    A nd           | Website:  www.openfoam.com                      |
|    \\/     M anipulation  |                                                 |
\*---------------------------------------------------------------------------*/
FoamFile
{
    version     2.0;
    format      ascii;
    class       dictionary;
    object      fvSolution;
}
// * * * * * * * * * * * * * * * * * * * * * * * * * * * * * * * * * * * * * //

solvers
{
    "alpha.*"
    {
        nAlphaCorr      1;
        nAlphaSubCycles 2;
        smoothLimiter   0;
        tolerance       1e-9;
        relTol          0;
        minIter         1;
    }

    p_rgh1
    {
        //solver		smoothSolver;
	solver          GAMG;
        smoother        symGaussSeidel;
        tolerance       1e-6;
        relTol          1e-3;
	minIter		1;
    }

    p_rgh
    {
        solver          GAMG;
	smoother	DILU;
        preconditioner
        {
            preconditioner  DILU;
            smoother        DICGaussSeidel;
            tolerance       1e-6;
        }
        tolerance       1e-6;
	relTol	      	0.1;
	minIter		1;
    }

    p_rghFinal
    {
        $p_rgh;
        relTol          0.1;
    }

    "U.*"
    {
        solver          smoothSolver;
        smoother        symGaussSeidel;
        tolerance       1e-5;
        relTol          0;
        minIter         1;
    }

    "(h|e).*"
    {
        //solver          GAMG;
        //solver          smoothSolver;
	solver		PBiCG;
	preconditioner  diagonal;
        //smoother        GaussSeidel;
        tolerance       1e-6;
        relTol          0;
        minIter         1;
    }

    Yi
    {
        solver          smoothSolver;
        smoother        symGaussSeidel;
        tolerance       1e-5;
        relTol          0;
        minIter         1;
        residualAlpha   1e-5;
    }

    "Theta.*"
    {
        solver          smoothSolver;
        smoother        symGaussSeidel;
        tolerance       1e-6;
        relTol          0;
        minIter         1;
    }

    "(k|epsilon).*"
    {
        solver          smoothSolver;
        smoother        symGaussSeidel;
        tolerance       1e-5;
        relTol          0;
        minIter         1;
    }
}

PIMPLE
{
    nOuterCorrectors    20;
    nCorrectors         3;
    nNonOrthogonalCorrectors 0;
    nEnergyCorrectors   3;
    stopIfNotConverged  false;
    transonic		yes;
    transCo		0.5;
    maxCo		0.8;
    partialElimination  false;
    residualControl
    {
        h.gas
        {
                tolerance  1e-4;
                relTol      0;
        }
        h.particles
        {
                tolerance  1e-4;
                relTol      0;
        }
        p_rgh
        {
                tolerance   1e-4;
                relTol      0;
        }
     }
     pRefCell        0;
     pRefValue	     0;
}

relaxationFactors
{
    equations
    {
        "h.*"            0.1;
	p_rgh		 0.1;
    }
}


// ************************************************************************* //
